!b3lyp 6-311+g** d4

%maxcore 5000
%pal
nprocs 8
end

%tddft
  nroots 1000
  end
  
* xyz 0 1
  C   2.38563257067293     -2.80896470388042     -0.00001293276846
  C   1.32513518026233     -3.43856909119664     -0.00004034767167
  C   0.03430161168417     -2.93352879445554     -0.00011246904013
  C   -1.25615999862344     -3.46212484936921     -0.00015425595494
  C   -2.30111120258552     -2.81438035036468     -0.00021962079492
  C   -2.50356590389742     -1.43045752950732     -0.00027167682387
  C   -3.72467793324503     -0.73280067677189     -0.00034687934997
  C   -3.73748294413923      0.63757885439878     -0.00038877495853
  C   -2.52838146465933      1.35477630939962     -0.00035607522704
  C   -2.34672559959412      2.74700783182244     -0.00039048803100
  C   -1.29066112167157      3.37354659858138     -0.00036243439127
  C   0.01889263006477      2.86788703799800     -0.00028985576826
  C   1.22697706796023      3.58680703610319     -0.00025939111115
  C   2.42429140377027      2.92008429546019     -0.00018840119487
  C   2.45307336065647      1.51399100554122     -0.00014457848073
  C   3.57260172387330      0.67516147819708     -0.00007013626701
  C   3.63973841093950     -0.55240177378359     -0.00002928067543
  C   2.55947164038255     -1.43378263490783     -0.00004923559846
  C   1.26429685846144     -0.72147893992175     -0.00012534764190
  C   1.23731746073363      0.72272752246253     -0.00017305297498
  C   -0.00564173195497      1.42041298775479     -0.00024677852890
  C   -1.24538806261078      0.68405599298829     -0.00027981463356
  C   -1.22712160270953     -0.74117183980094     -0.00023477358720
  C   0.02824947923193     -1.45573658376072     -0.00015931896494
  H   -4.64663384137248     -1.30010886135204     -0.00037157699867
  H   -4.66986960634854      1.18755531908654     -0.00044756545216
  H   1.18985754023164      4.66867187238172     -0.00029401255750
  H   3.36345546319358      3.45840020800585     -0.00016439645395
*