!B3LYP 6-311+G** PAL4 D4
%TDDFT
  NROOTS 1000
  END
  
* XYZ 0 1
  C   2.46738420969044     -2.81263795783172     -0.00000966049012
  C   1.29021523102800     -3.51201377298185     -0.00004058752843
  C   0.03545823654551     -2.84357180192689     -0.00011700654154
  C   -1.20218758884439     -3.54318722424976     -0.00015075042869
  C   -2.39648198994610     -2.87343733279545     -0.00022388485081
  C   -2.44483130317816     -1.45256921864444     -0.00026846552257
  C   -3.66953458511693     -0.73051865229528     -0.00034472511273
  C   -3.68661914160231      0.63861472840141     -0.00038730418280
  C   -2.48033157917503      1.39101004534826     -0.00035686907249
  C   -2.46738422792533      2.81263810716101     -0.00040016524558
  C   -1.29021516017741      3.51201377026014     -0.00036907952599
  C   -0.03545824433177      2.84357164855152     -0.00029288255853
  C   1.20218752109912      3.54318714702554     -0.00025868906408
  C   2.39648192584401      2.87343728473768     -0.00018556866102
  C   2.44483133698195      1.45256923480284     -0.00014000970252
  C   3.66953468525759      0.73051872239281     -0.00006428529983
  C   3.68661917516395     -0.63861465299814     -0.00002177884745
  C   2.48033158796062     -1.39100989330468     -0.00005249628054
  C   1.24283538920719     -0.69700184097772     -0.00012812520396
  C   1.22507788089312      0.72785817295726     -0.00017277212960
  C   -0.01778931269948      1.42488311059932     -0.00024838531844
  C   -1.24283548786547      0.69700179739327     -0.00028095765872
  C   -1.22507784798994     -0.72785823769859     -0.00023664253283
  C   0.01778926369246     -1.42488327113558     -0.00016058910124
  H   3.41550123147825     -3.34209676159282      0.00004910526765
  H   1.30169328790670     -4.59787475323892     -0.00000731993262
  H   -1.18632309082569     -4.62898226472676     -0.00011753033763
  H   -3.33114883046848     -3.42627830125467     -0.00024867043727
  H   -4.60200524090237     -1.28700819551871     -0.00036909708835
  H   -4.63271390284347      1.17161298430852     -0.00044608968339
  H   -3.41550124203130      3.34209675863002     -0.00045950330323
  H   -1.30169305214735      4.59787465380430     -0.00040321338515
  H   1.18632293779304      4.62898220026966     -0.00029320761784
  H   3.33114870064961      3.42627836580996     -0.00016042132367
  H   4.60200524894750      1.28700844288560     -0.00003923404308
  H   4.63271397793190     -1.17161304216713      0.00003686274508
*