!b3lyp 6-311g** d4 opt freq

%maxcore 5000
%pal
nprocs 8
end

* xyz 0 1
C          2.73478       -3.23084        0.00411
C          1.52791       -3.94618        0.00343
C          0.44455       -3.05539        0.00437
C         -0.92223       -3.44310        0.00406
C         -2.08029       -2.70410        0.00481
C         -2.21156       -1.28173        0.00616
C         -3.51613       -0.66549        0.00682
C         -3.73751        0.69584        0.00814
C         -2.63702        1.60906        0.00898
C         -2.60151        3.03925        0.01045
C         -1.40685        3.74651        0.01118
C         -0.13578        3.08998        0.01053
C          1.19360        3.61709        0.01124
C          2.28135        2.76917        0.01044
C          2.19427        1.32898        0.00885
C          3.37862        0.53013        0.00805
C          3.47104       -0.84006        0.00660
C          2.47388       -1.85266        0.00553
C          0.32493       -0.53913        0.00683
C         -1.39393        0.98482        0.00831
C         -1.12937       -0.39257        0.00696
C          1.02189       -1.71552        0.00568
H          3.73632       -3.66635        0.00355
H          1.42913       -5.03393        0.00234
H         -1.06147       -4.53202        0.00305
H         -3.01885       -3.27000        0.00436
H         -3.54322        3.59786        0.01100
H         -1.44066        4.84092        0.01232
H          1.35680        4.69970        0.01244
H          3.28647        3.20414        0.01113
H          4.32370        1.08502        0.00864
H          4.49357       -1.23946        0.00615
C          0.89499        0.80723        0.00819
C         -0.18599        1.70013        0.00905
*