!b3lyp 6-311g** d4 pal4 opt freq tightscf



* xyz 0 1
  C   2.45146015378047     -2.79640829756391     -0.00000894950360
  C   1.27745030019084     -3.48801980570912     -0.00004239042501
  C   0.03099629018149     -2.81476915991496     -0.00012045972332
  C   -1.20039443629787     -3.52370642524107     -0.00015136516890
  C   -2.38821402949969     -2.86374444469335     -0.00023012567495
  C   -2.43891647858436     -1.44278925697839     -0.00026805810319
  C   -3.67480088246149     -0.75352119808346     -0.00034437777681
  C   -3.72585188064763      0.61033698072383     -0.00038628640246
  C   -2.53276701463914      1.35918741087317     -0.00035640484738
  C   -2.34636446949512      2.75355673162154     -0.00039264917206
  C   -1.29642550587759      3.37994910058606     -0.00036530483861
  C   0.01703770712128      2.87663910661279     -0.00029059715926
  C   1.24338469310856      3.57000342008993     -0.00026002298658
  C   2.42207420744963      2.88216826627037     -0.00018620143084
  C   2.43229461663392      1.46799832610532     -0.00014351445541
  C   3.60647775938701      0.69813665880269     -0.00006864981400
  C   3.68586880298473     -0.64074321609760     -0.00002058571173
  C   2.46168272024364     -1.37976554725807     -0.00005005614565
  C   1.23625395499842     -0.68245903152754     -0.00012911256075
  C   1.21407015970430      0.74460840470203     -0.00017304030119
  C   -0.02185536716425      1.44662046532696     -0.00024755378658
  C   -1.25871143457760      0.71015369723078     -0.00027752224613
  C   -1.23124720962662     -0.71176371609471     -0.00023763581900
  C   0.01359273097520     -1.40654093237051     -0.00016097171165
  H   3.39815608454313     -3.32294847346625      0.00005390672498
  H   1.28121152702388     -4.57152648014220     -0.00000734557412
  H   -1.17420741155428     -4.60677704363004     -0.00012152878190
  H   -3.32153525568072     -3.41384789533623     -0.00025347088516
  H   -4.58974390880012     -1.33370639611801     -0.00036609996964
  H   -4.67159769511159      1.13478572432735     -0.00044430770784
  H   1.23110317529550      4.65127592066200     -0.00029523630269
  H   3.36837678237072      3.40723854080834     -0.00016153332102
  *
  