!M062x def2-tzvp opt freq tightscf

%freq
Temp 298.15,10,20,50,100,6000,8000,10000
end

%maxcore 4000
%pal
nprocs 3
end

%geom
 maxiter 2000
end

* xyz 0 1
  C   2.46362427987247     -2.85071308273857     -0.00000218907091
  C   1.27719400513090     -3.52585311672403     -0.00003902795947
  C   0.05064934326115     -2.82613554872827     -0.00011828018749
  C   -1.19925193688694     -3.46606389677068     -0.00015928151260
  C   -2.39885271805658     -2.87183824187673     -0.00023283554738
  C   -2.43518053153382     -1.44080024452875     -0.00027277196623
  C   -3.66777674509120     -0.75191121775761     -0.00034379554662
  C   -3.71279324924276      0.61270000430768     -0.00038290810371
  C   -2.51870888891228      1.35470401292599     -0.00035207453727
  C   -2.33852946574720      2.75004532075493     -0.00038523866368
  C   -1.29227857579710      3.37936032270345     -0.00036005870682
  C   0.02296635156368      2.87874227377718     -0.00029143038758
  C   1.23211767469076      3.59211777508479     -0.00026457178571
  C   2.42594730830480      2.92563510630820     -0.00019121984698
  C   2.44893445959464      1.52227723319545     -0.00014614397662
  C   3.55845924150033      0.65762020353451     -0.00006795876215
  C   3.57066637986837     -0.56331157183495     -0.00002324805222
  C   2.47403114247392     -1.44414615823703     -0.00004617494814
  C   1.25557023434205     -0.69183165762109     -0.00012491861115
  C   1.23800989899349      0.75081893774134     -0.00017659337158
  C   -0.00359548669936      1.44369816359284     -0.00024809051538
  C   -1.24385874208543      0.70472511229996     -0.00028011039122
  C   -1.22033926149096     -0.71624674943317     -0.00023589301594
  C   0.03056944314590     -1.40895937212992     -0.00016349124726
  H   3.40592714860256     -3.38099880595279      0.00006084796734
  H   1.25543248807529     -4.60779790743838     -0.00000593698860
  H   -3.32874432396662     -3.42840544994019     -0.00026138694326
  H   -4.58380467774224     -1.32989113444890     -0.00036599782084
  H   1.19941226127863      4.67287271493635     -0.00030009286005
  H   3.36338199069149      3.46449630946482     -0.00016807868239
*