!b3lyp 6-311+g** d4  UKS moread

% moinp "57rings_carbon_19-22_product_loss_four_spectra_orca6.0.0.gbw"

  
%maxcore 5000
%pal
nprocs 8
end
  

%scf
  stabperform true
  STABDTol 0.00001
  STABRTol 0.00001
  end
  
%tddft
  nroots 1000
  end
  
  
* xyz 0 1
  C   2.65263223987661     -3.24222837205533      0.00423810167507
  C   1.58321155825378     -3.89013745107644      0.00356767542366
  C   0.41707580300310     -3.08639665334534      0.00435352508535
  C   -0.92580698717380     -3.49073005508833      0.00391757303769
  C   -2.09375524502203     -2.74997217808090      0.00463429738471
  C   -2.21722251115601     -1.34494138523039      0.00606399495331
  C   -3.42830510189346     -0.58760122467869      0.00681950892643
  C   -3.63101922317580      0.62944609417213      0.00807225771813
  C   -2.64813956860818      1.66207235107236      0.00914117988147
  C   -2.60823523590207      3.07701832745724      0.01058600324656
  C   -1.39488245241918      3.76508417776725      0.01127564458998
  C   -0.14147031335312      3.09206671215471      0.01059286086512
  C   1.19138019812525      3.61707808895886      0.01112744066277
  C   2.27397663245459      2.77021962670310      0.01028287245724
  C   2.18459804221119      1.32529977570023      0.00882520832142
  C   3.36911017102094      0.53973952352043      0.00806495439249
  C   3.47783393089536     -0.83409991407854      0.00668899755767
  C   2.48829012305239     -1.83519053510052      0.00565373366937
  C   0.30597435636692     -0.54009577297645      0.00691550012810
  C   -1.40639377490421      0.99059742065841      0.00846288991340
  C   -1.14960193559369     -0.39703446569369      0.00704598081183
  C   1.00555215554687     -1.71093891441525      0.00575192334366
  H   -1.05614773528199     -4.56844898375500      0.00282447081112
  H   -3.02367644255227     -3.30567952014598      0.00404749921006
  H   -3.53522356670493      3.63773067563067      0.01116526029279
  H   -1.41365589412053      4.84971218254795      0.01238132727961
  H   1.35380410031795      4.68977263585563      0.01220893737835
  H   3.26997331672657      3.20022004918214      0.01072691561798
  H   4.30310853517328      1.09238952034645      0.00863951526354
  H   4.49070585619504     -1.22497074558989      0.00632035391925
  C   0.88282088638576      0.80799104872083      0.00828359837618
  C   -0.19653191774435      1.69960796086236      0.00917999780569
*