!b3lyp 6-311g** d4 opt freq

%maxcore 5000
%pal
nprocs 7
end


* xyz 0 1
C          2.65275       -3.24955        0.00419
C          1.57844       -3.88534        0.00355
C          0.41737       -3.07054        0.00437
C         -0.92448       -3.47782        0.00395
C         -2.09149       -2.73807        0.00467
C         -2.21134       -1.33361        0.00609
C         -3.42486       -0.58042        0.00684
C         -3.63099        0.63507        0.00809
C         -2.65203        1.67152        0.00915
C         -2.63301        3.08247        0.01058
C         -1.42938        3.79484        0.01129
C         -0.18326        3.13274        0.01062
C          1.19634        3.49300        0.01099
C          2.16219        2.72684        0.01021
C          2.23914        1.30097        0.00878
C          3.41249        0.52006        0.00801
C          3.49963       -0.85906        0.00662
C          2.49741       -1.83971        0.00562
C          0.31506       -0.52490        0.00692
C         -1.40450        1.00293        0.00847
C         -1.14483       -0.38464        0.00706
C          1.01104       -1.70119        0.00574
H         -1.05271       -4.55562        0.00286
H         -3.02212       -3.29239        0.00410
H          4.34648        1.06874        0.00857
H          4.50646       -1.26452        0.00622
C          0.89407        0.82219        0.00829
C         -0.19735        1.71746        0.00919
*