!B3LYP 6-311G* VERYTIGHTOPT FREQ D3  tightscf

%maxcore 5000
%pal
nprocs 7
end

* xyz 0 1
C         -3.31850        1.64820       -0.02280
C         -4.21800        0.60000       -0.04760
C         -3.79590       -0.71580       -0.04710
C         -2.43130       -1.01370       -0.02200
C         -1.95870       -2.34880       -0.02070
C         -0.63320       -2.61610        0.00050
C          0.31990       -1.56850        0.02230
C          1.69220       -1.82060        0.04090
C          2.60020       -0.77350        0.06260
C          2.17360        0.54160        0.06650
C          0.80500        0.83490        0.04750
C          0.33390        2.17100        0.05080
C         -0.99140        2.43920        0.02890
C         -1.94510        1.39240        0.00310
C         -1.50240        0.05080        0.00220
C         -0.12430       -0.22760        0.02440
C          3.36980        1.46960        0.09220
C          4.56690        0.59700       -0.33960
C          4.11540       -0.81590        0.08520
H         -3.67730        2.66680       -0.02810
H         -5.27640        0.81400       -0.06740
H         -4.52200       -1.51500       -0.06580
H         -2.66640       -3.16450       -0.03660
H         -0.29670       -3.64240        0.00130
H          2.04970       -2.83980        0.03870
H          1.04240        2.98590        0.07140
H         -1.32730        3.46570        0.03200
H          3.22700        2.29030       -0.61080
H          3.52720        1.85610        1.09910
H          4.71510        0.64850       -1.41820
H          5.47220        0.89060        0.19160
H          4.47220       -1.04050        1.09040
H          4.48340       -1.55900       -0.62220
*