!b3lyp 6-311g** d4 opt freq noautostart

%maxcore 5000
%pal
nprocs 8
end

* xyz 0 1
C          2.67982       -3.23553        0.00416
C          1.56298       -3.91089        0.00347
C          0.42558       -3.08019        0.00435
C         -0.92476       -3.48643        0.00396
C         -2.09316       -2.75325        0.00469
C         -2.22076       -1.34420        0.00610
C         -3.42977       -0.58884        0.00685
C         -3.63195        0.63637        0.00808
C         -2.65182        1.66827        0.00912
C         -2.61048        3.08523        0.01056
C         -1.39940        3.77270        0.01127
C         -0.14574        3.09927        0.01059
C          1.19168        3.63153        0.01115
C          2.21528        2.73816        0.01025
C          2.19214        1.31243        0.00881
C          3.38255        0.53338        0.00804
C          3.47734       -0.83946        0.00665
C          2.47882       -1.84122        0.00561
C          0.30134       -0.54367        0.00686
C         -1.41008        0.99427        0.00843
C         -1.15318       -0.39756        0.00704
C          1.00774       -1.71943        0.00569
H         -1.05107       -4.57533        0.00286
H         -3.03170       -3.31491        0.00413
H         -3.54582        3.65145        0.01114
H         -1.41474        4.86750        0.01239
H          4.32053        1.09783        0.00862
H          4.49615       -1.24417        0.00625
C          0.88016        0.80225        0.00825
C         -0.19808        1.70267        0.00916
*