!b3lyp opt freq 6-311g** tightscf d4

%maxcore 5000
%pal
nprocs 8
end


* xyz 0 1
  C   2.37280860538324     -2.79846524064522     -0.00001234041100
  C   1.32394334545226     -3.42823223209199     -0.00003089816096
  C   0.03434606385436     -2.92166225313949     -0.00010511850401
  C   -1.24263451724828     -3.46509269762077     -0.00014118344369
  C   -2.31017008776127     -2.87021127123227     -0.00021378839075
  C   -2.51388166988877     -1.49734891371204     -0.00027308294463
  C   -3.61637619769899     -0.65894701157196     -0.00035361818948
  C   -3.62724511792076      0.56453769261050     -0.00039284715760
  C   -2.54046377351915      1.42361241905059     -0.00036418216357
  C   -2.36050597573830      2.80461676302110     -0.00039006592429
  C   -1.28681632943158      3.38646212111057     -0.00035452775249
  C   0.00695399587743      2.86519917064109     -0.00028578305633
  C   1.22957978169364      3.51849590895683     -0.00025197688228
  C   2.43390983017976      2.92281686859161     -0.00018651725622
  C   2.43891591381167      1.51037769646245     -0.00015092945295
  C   3.55434943918116      0.67212317289077     -0.00008057505908
  C   3.61929234468213     -0.54715534351761     -0.00004025574561
  C   2.53756256463802     -1.42273111960645     -0.00005711630713
  C   1.25310261654573     -0.71726510871733     -0.00013307409191
  C   1.22603401391591      0.72724994325301     -0.00017432204856
  C   -0.02390930986769      1.41863074464522     -0.00024876143823
  C   -1.27037990052316      0.69230938317168     -0.00028027469504
  C   -1.25015087151223     -0.74881055844367     -0.00024125128222
  C   0.01300327467865     -1.45366448493063     -0.00015527767753
*