!b3lyp 6-311g** d4 opt freq

%maxcore 5000
%pal
nprocs 8
end

* xyz 0 1
C          2.71542       -3.20652        0.00420
C          1.51586       -3.91699        0.00347
C          0.47920       -3.07830        0.00434
C         -0.94715       -3.50866        0.00391
C         -2.07182       -2.75114        0.00469
C         -2.22462       -1.26610        0.00619
C         -3.53549       -0.69249        0.00677
C         -3.73701        0.72145        0.00819
C         -2.62608        1.58446        0.00907
C         -2.63377        3.09501        0.01060
C         -1.45951        3.81810        0.01133
C         -0.12848        3.11530        0.01063
C          1.11870        3.64200        0.01117
C          2.34247        2.72650        0.01025
C          2.24508        1.35412        0.00887
C          3.46636        0.49664        0.00800
C          3.56044       -0.85753        0.00662
C          2.48084       -1.89292        0.00555
C          0.30406       -0.52646        0.00696
C         -1.40057        0.97734        0.00847
C         -1.15636       -0.36618        0.00711
C          1.03642       -1.74467        0.00571
H          3.69946       -3.65783        0.00372
H          1.43686       -4.99667        0.00236
H         -1.10337       -4.58461        0.00282
H         -3.00387       -3.31079        0.00412
H         -4.40571       -1.33691        0.00611
H         -4.74077        1.12606        0.00859
H         -3.58324        3.62074        0.01112
H         -1.49474        4.90288        0.01242
H          1.25387        4.71865        0.01226
H          3.32172        3.19565        0.01073
H          4.41341        1.03076        0.00855
H          4.57271       -1.25425        0.00622
C          0.88992        0.80402        0.00831
C         -0.20383        1.69266        0.00920
*