!B3LYP 6-311+G**  D4

%maxcore 5000
%pal
nprocs 7
end

%TDDFT
  NROOTS 1000
  END

%scf
stabperform true
STABDTol 1e-5
STABRTol 1e-5
end
  
* XYZ 0 1
  C   0.78369955260720     -2.35504525264630     -0.00023808357704
  C   -0.78369637694139     -2.35504641388410      0.00013378256671
  C   -1.17361698941675     -0.88811076846892     -0.00002147923963
  C   -2.39198214844659     -0.25250883760890     -0.00003207291595
  C   -2.42297036751965      1.16857143938592     -0.00007087132505
  C   -1.27358511398494      1.93256282447503     -0.00008320754857
  C   -0.00000100035964      1.30453082628835     -0.00007880657579
  C   1.27358206641138      1.93256459362965     -0.00008405118965
  C   2.42296848500334      1.16857484634030     -0.00008458181567
  C   2.39198225835596     -0.25250541197616     -0.00010224566366
  C   1.17361792548015     -0.88810898615641     -0.00010358428754
  C   -0.00000005714253     -0.10715555989346     -0.00006810843805
  H   1.18365250229207     -2.87326778522408      0.87637029015427
  H   1.18317455131464     -2.87286652771657     -0.87730709384332
  H   -1.18364854332015     -2.87328219574537     -0.87646710977918
  H   -1.18317046077847     -2.87285578192771      0.87721026304997
  H   -3.32450522341235     -0.80883469733519      0.00000207446805
  H   -3.38773566365317      1.66669394019372     -0.00008134479695
  H   -1.34018346522423      3.01645963906894     -0.00009999316040
  H   1.34017894706046      3.01646151893004     -0.00008457956324
  H   3.38773307715323      1.66669871259211     -0.00008095604207
  H   3.32450604452143     -0.80883012232088     -0.00012824047726
*