!B3LYP 6-311+G**  D4

%maxcore 5000
%pal
nprocs 7
end

%TDDFT
  NROOTS 1000
  END

%scf
stabperform true
STABDTol 1e-5
STABRTol 1e-5
end
  
* XYZ 0 1
  C   -2.84649481311413      1.32853934278519      0.04082544356362
  C   -3.54252477281126      0.01994727577677     -0.33605495274669
  C   -2.83457073606975     -1.16459111854875      0.31871888226741
  C   -1.39701413503665     -1.27284678953460     -0.19192955803844
  C   -0.60778189749083     -2.39462513401217      0.48685667106428
  C   0.78280703912992     -2.50538872088470     -0.13496808632783
  C   1.51814970578825     -1.18574242893202     -0.09377498747591
  C   2.89606793121302     -1.14864983454714     -0.07156557965300
  C   3.60029305628665      0.07194215298803     -0.03113207606206
  C   2.91272323180302      1.25973092723284      0.00497211713763
  C   1.49679423859972      1.27172733578483     -0.00399200134586
  C   0.76345538252798      2.48378034803392      0.05160731595718
  C   -0.60425071907424      2.46793065706477      0.05576720469919
  C   -1.33356075610284      1.25237015608953     -0.00996113147980
  C   -0.65359902462919      0.04989388477955     -0.08256147958178
  C   0.77930999944335      0.03590504658895     -0.06614838926150
  H   -3.19207700044805      2.14305246952036     -0.60527737099407
  H   -3.14145377005098      1.61544427458061      1.05964867159191
  H   -4.59662501394741      0.05893629674610     -0.04457185891001
  H   -3.52265195310175     -0.10939518668025     -1.42500050923922
  H   -2.82767810590250     -1.03737931324478      1.40910785138869
  H   -3.36700692838662     -2.09932745923735      0.11344666923069
  H   -1.45240989786308     -1.52640514968263     -1.26308063325247
  H   -0.52098884418308     -2.18224796473432      1.55905583992564
  H   -1.14712231372923     -3.34248653150317      0.38830475934375
  H   1.37696615538652     -3.27484455038569      0.36726258084472
  H   0.67865465379689     -2.83227840543068     -1.17888914336500
  H   3.45098861232817     -2.08288638823669     -0.08041532119640
  H   4.68556022408452      0.06576823348553     -0.01754280207247
  H   3.44420915128685      2.20590793785539      0.04760152993843
  H   1.30478610566844      3.42439785857417      0.09426977468638
  H   -1.15605480540169      3.40282077770839      0.10822056936297
*