!M062X def2-tzvp PAL4 TIGHTOPT FREQ defgrid3 tightscf

%freq
Temp 298.15,10,20,50,100,6000,8000,10000
end

%geom
maxiter 6000
end


* xyz 0 1
  C   2.47037624164038     -2.80523741429226     -0.00103917937256
  C   1.30302417857273     -3.50824828511122     -0.00139105170209
  C   0.05465358036604     -2.83828364513463     -0.00103596673913
  C   -1.19298259878333     -3.55291211609695      0.00149047026503
  C   -2.29927875133112     -2.81241229977331      0.00071795401056
  C   -2.46275578473672     -1.43418547876771      0.00002988314218
  C   -3.68236072474420     -0.70528800028821     -0.00248694862107
  C   -3.68933462102577      0.65307813937807     -0.00189676375433
  C   -2.47361690401513      1.38770769624135      0.00052518580758
  C   -2.47436351715325      2.82398588255499      0.00123289556791
  C   -1.28897496236031      3.44210658792994     -0.00188969043469
  C   -0.03702710891302      2.83963729847664     -0.00045046128250
  C   1.20563188931682      3.52872543415538     -0.00027766570984
  C   2.38868835294253      2.85616533643368      0.00031391358333
  C   2.43016086394242      1.43865896265372      0.00038793915495
  C   3.65692361624067      0.72401153288461      0.00006584195065
  C   3.67647420826063     -0.63680506971263     -0.00051112158643
  C   2.47039844499442     -1.38698432870791     -0.00063697756373
  C   1.23944600283428     -0.70392507440073     -0.00009076391670
  C   1.21936608031919      0.72066139756105      0.00037084757546
  C   -0.02403804260675      1.40513001580018      0.00034526649553
  C   -1.25198704427744      0.69744447478904      0.00078207136112
  C   -1.22473811312767     -0.73312242237762      0.00133521770717
  C   0.01694057795396     -1.43023321032669      0.00004139138424
  H   3.42089450560148     -3.32584502455542     -0.00120910448071
  H   1.31305903448979     -4.59127588114758     -0.00178167962688
  H   -1.18401338368822     -4.63819710524348      0.00604745166716
  H   -4.60727292712033     -1.26367707333609     -0.00362729719951
  H   -4.62406802150885      1.20047339621884     -0.00290513517221
  H   -3.43176635641315      3.33743382902912      0.00175718036075
  H   1.18057031457570      4.60978564325538     -0.00055056045445
  H   3.32422677329664      3.40245819274350      0.00036072317032
  H   4.58253337573050      1.28695445656371      0.00011867222909
  H   4.61819793270256     -1.17248447218483     -0.00085705215358
  *