!B3LYP 6-311G* VERYTIGHTOPT FREQ D3  tightscf

%maxcore 5000
%pal
nprocs 7
end

* xyz 0 1
C         -2.79060        1.22210        0.00170
C         -3.45700       -0.00000        0.00110
C         -2.79060       -1.22210        0.00010
C         -1.39850       -1.27180       -0.00050
C         -0.69940       -2.47580       -0.00070
C          0.69960       -2.47580       -0.00070
C          1.39860       -1.27180       -0.00040
C          2.79070       -1.22200        0.00030
C          3.45690        0.00010        0.00100
C          2.79060        1.22220        0.00090
C          1.39840        1.27180        0.00030
C          0.69940        2.47580       -0.00090
C         -0.69950        2.47580       -0.00230
C         -1.39850        1.27180        0.00070
C         -0.65260       -0.00000       -0.00040
C          0.65260       -0.00000       -0.00030
H         -3.35850        2.14070       -0.00170
H         -4.53700       -0.00000        0.00200
H         -3.35850       -2.14080        0.00000
H         -1.23830       -3.41180       -0.00060
H          1.23840       -3.41180       -0.00050
H          3.35860       -2.14060        0.00080
H          4.53690        0.00020        0.00190
H          3.35840        2.14090        0.00170
H          1.23830        3.41180       -0.00030
H         -1.23840        3.41180       -0.00280
*