!b3lyp 6-311g** d4 opt freq tightscf

%maxcore 5000
%pal
nprocs 8
end

* xyz 0 1
  C   2.37736985640343     -2.80263250891810     -0.00001572073783
  C   1.32452241034237     -3.42926861886613     -0.00004110975399
  C   0.03491357896291     -2.92315995211201     -0.00011074341601
  C   -1.25379024641714     -3.45776147127981     -0.00014971562321
  C   -2.29476237737540     -2.81966013898324     -0.00021330703165
  C   -2.49432888412146     -1.43672229688888     -0.00026663051590
  C   -3.66558370933430     -0.69651870955700     -0.00034428138916
  C   -3.74573062673887      0.64748023125425     -0.00039293649606
  C   -2.52394773960553      1.35384759131479     -0.00036008361568
  C   -2.33982119227790      2.74526040248274     -0.00039357090816
  C   -1.28686354115789      3.36121302512499     -0.00036202985995
  C   0.02197801214411      2.85435478986801     -0.00028781735367
  C   1.22474957372485      3.57744239497287     -0.00025585072190
  C   2.41692856258121      2.91535711077273     -0.00018547026143
  C   2.43890994939853      1.51173204182221     -0.00014596094497
  C   3.55763671234650      0.67178213395759     -0.00007395015909
  C   3.63068799555747     -0.54698764745543     -0.00003176729692
  C   2.54959725356081     -1.42803487242625     -0.00005179187587
  C   1.26555221272137     -0.72396213251619     -0.00013030058547
  C   1.23457230235644      0.72183362499466     -0.00017469193543
  C   -0.00806229179262      1.41790768062271     -0.00024842148382
  C   -1.25075502255285      0.68250379521971     -0.00028134490053
  C   -1.22517716041168     -0.74287589572033     -0.00023627094365
  C   0.02996190331513     -1.45945156581530     -0.00016023039351
  H   1.18360015502553      4.65771899535996     -0.00028843289310
  H   3.35571763179321      3.45138361176964     -0.00016041914485
*
