!b3lyp 6-311+g** d4 moread UKS

%moinp "57rings_19-22_loss_eight_spectra_orca6.0.gbw"

%scf
  stabperform true
  stabdtol 0.00001
  stabrtol 0.00001
  end
  
%maxcore 5000
%pal
nprocs 8
end

%tddft
  nroots 1000
  end

* xyz 0 1
  C   2.64677421432996     -3.23839622498648      0.00422147310361
  C   1.57174458858647     -3.87473140354969      0.00358333406275
  C   0.41260432106449     -3.06326470212235      0.00438073012683
  C   -0.92829278422802     -3.47508720048048      0.00395332087197
  C   -2.09297755524028     -2.73648157822942      0.00466585109472
  C   -2.21333690041290     -1.33066509425227      0.00608193211152
  C   -3.42626295528207     -0.58948271655408      0.00681919371308
  C   -3.67563478812837      0.61967812555275      0.00805521529239
  C   -2.71144972706951      1.65166996227796      0.00912326725315
  C   -2.51629703655797      3.03611918458737      0.01053654785892
  C   -1.44483985356360      3.67012219068695      0.01118455172180
  C   -0.13728741840871      3.17542057672381      0.01067892044226
  C   1.23134541908029      3.52451227209350      0.01103383042187
  C   2.17092146406024      2.72366785951874      0.01021765074334
  C   2.23746174539702      1.30398873081684      0.00877624478226
  C   3.41193442441387      0.52212640148376      0.00799580576503
  C   3.49909882268844     -0.85427778797007      0.00661447764163
  C   2.49312117710644     -1.83184182356405      0.00562455686336
  C   0.30836952609245     -0.51399940320928      0.00693247773696
  C   -1.41959042081622      1.01482928301653      0.00848276383496
  C   -1.15287372180037     -0.37244020810873      0.00706955961394
  C   1.00436239231080     -1.68985586306334      0.00576169250620
  H   -1.05421447151150     -4.55302845942121      0.00287592109981
  H   -3.02447748164697     -3.28913584142590      0.00409558982765
  H   4.34468993260132      1.07267593021159      0.00855283214918
  H   4.50478466908576     -1.26221559122214      0.00620909867069
  C   0.88727329211473      0.83509171807148      0.00829761005761
  C   -0.20043087426579      1.73645166311816      0.00921555063249
*