!B3LYP 6-311G* VERYTIGHTOPT FREQ D3  tightscf

%maxcore 5000
%pal
nprocs 7
end

* xyz 0 1
C         -2.81390        1.23360       -0.14120
C         -3.47330        0.03950       -0.07480
C         -2.79040       -1.16210        0.08660
C         -1.42700       -1.18130        0.14630
C         -0.66890       -2.46020        0.37090
C          0.66900       -2.46380       -0.35790
C          1.42540       -1.18080       -0.15330
C          2.78980       -1.16170       -0.09840
C          3.47420        0.03970        0.05570
C          2.81490        1.23330        0.13060
C          1.41530        1.25230        0.05830
C          0.67550        2.45690        0.03750
C         -0.67490        2.45810       -0.03020
C         -1.41530        1.25370       -0.04740
C         -0.73200        0.02360        0.03060
C          0.73100        0.02110       -0.01150
H         -3.36460        2.15370       -0.26910
H         -4.55070        0.02750       -0.14900
H         -3.34340       -2.08640        0.16550
H         -0.49130       -2.58430        1.43920
H         -1.26990       -3.29630        0.01330
H          1.27170       -3.29330        0.01180
H          0.49140       -2.60430       -1.42410
H          3.34200       -2.08680       -0.17480
H          4.55230        0.02810        0.11790
H          3.36710        2.15440        0.24480
H          1.20180        3.39920        0.07700
H         -1.20020        3.40090       -0.07080
*